-- Copyright (C) 2023 NORCE
-- WIP: Current simulation results for the SPE CSP 11A
-- TODO: To add vaporized water in the gas phase.
-- Adapted from NORCE/Tor-Harald by Olav
----------------------------------------------------------------------------
RUNSPEC
----------------------------------------------------------------------------

DIMENS
280 1 120 /

OIL
GAS
-- CO2STORE
DISGAS
-- DIFFUSE
-- DISPER

METRIC

START
17 'Feb' 2023 /

EQLDIMS
/

WELLDIMS
10 60 10 20 /

TABDIMS
6 1* 101 101 /

UNIFOUT

MESSAGES
1* 1* 10 /

----------------------------------------------------------------------------
GRID
----------------------------------------------------------------------------

INIT

INCLUDE
'CSP11B.GRDECL' /

INCLUDE
'PERM.inc' /

INCLUDE
'PORO.inc' /

COPY
PERMX PERMY /
PERMX PERMZ /
/

MULTIPLY
PERMZ 0.1 /
/

----------------------------------------------------------------------------
EDIT
----------------------------------------------------------------------------

INCLUDE
'PORV.inc' /

----------------------------------------------------------------------------
PROPS
----------------------------------------------------------------------------

--        OIL   WATER   GAS

DIFFC
18.01528 44.01 2.0e-08 1* 1e-09  /

INCLUDE
'SGOF.txt' /


INCLUDE
'PVDG.txt' /

INCLUDE
'PVTO.txt' /

INCLUDE
'DENSITY.txt'/


----------------------------------------------------------------------------
REGIONS
----------------------------------------------------------------------------

INCLUDE
'SATNUM.inc' /

----------------------------------------------------------------------------
SOLUTION
----------------------------------------------------------------------------

RTEMPVD
0   20.0
1200 20.0 /

RSVD
0   0.0
1200 0.0 /

EQUIL
0 196.20000 100000 0 0 0 1 1 0 /

BC 
1 8400 1 1 1 1 Z- FREE /
/

RPTRST
BASIC=2 DEN KRG KRO/

SUMMARY
ALL
PERFORMA

----------------------------------------------------------------------------
SCHEDULE
----------------------------------------------------------------------------

INCLUDE
'SCHEDULE_B.inc' /
